
  EPA STORM WATER MANAGEMENT MODEL - VERSION 5.1 (Build 5.1.012)
  --------------------------------------------------------------

  Uebung2 
  
  
  *********************
  Rainfall File Summary
  *********************
  Station    First        Last         Recording   Periods    Periods    Periods
  ID         Date         Date         Frequency  w/Precip    Missing    Malfunc.
  -------------------------------------------------------------------------------
  N_ED       02/02/2005   08/15/2005       5 min      2430          0          0

  
  *********************************************************
  NOTE: The summary statistics displayed in this report are
  based on results found at every computational time step,  
  not just on results from each reporting time step.
  *********************************************************
  
  ****************
  Analysis Options
  ****************
  Flow Units ............... LPS
  Process Models:
    Rainfall/Runoff ........ YES
    RDII ................... NO
    Snowmelt ............... NO
    Groundwater ............ NO
    Flow Routing ........... YES
    Ponding Allowed ........ NO
    Water Quality .......... YES
  Infiltration Method ...... GREEN_AMPT
  Flow Routing Method ...... DYNWAVE
  Starting Date ............ 05/07/2005 00:00:00
  Ending Date .............. 05/08/2005 23:55:00
  Antecedent Dry Days ...... 0.0
  Report Time Step ......... 00:05:00
  Wet Time Step ............ 00:05:00
  Dry Time Step ............ 01:00:00
  Routing Time Step ........ 5.00 sec
  Variable Time Step ....... YES
  Maximum Trials ........... 8
  Number of Threads ........ 1
  Head Tolerance ........... 0.001500 m
  
  
  **************************        Volume         Depth
  Runoff Quantity Continuity     hectare-m            mm
  **************************     ---------       -------
  Total Precipitation ......         0.027        24.800
  Evaporation Loss .........         0.000         0.000
  Infiltration Loss ........         0.000         0.000
  Surface Runoff ...........         0.027        24.569
  Final Storage ............         0.001         0.502
  Continuity Error (%) .....        -1.091
  
  
  **************************           CSB          NH4N
  Runoff Quality Continuity             kg            kg
  **************************    ----------    ----------
  Initial Buildup ..........         0.000         0.000
  Surface Buildup ..........         0.000         0.000
  Wet Deposition ...........        28.633         0.000
  Sweeping Removal .........         0.000         0.000
  Infiltration Loss ........         0.000         0.000
  BMP Removal ..............         0.000         0.000
  Surface Runoff ...........        28.365         0.000
  Remaining Buildup ........         0.580         0.000
  Continuity Error (%) .....        -1.091         0.000
  
  
  **************************        Volume        Volume
  Flow Routing Continuity        hectare-m      10^6 ltr
  **************************     ---------     ---------
  Dry Weather Inflow .......         0.015         0.145
  Wet Weather Inflow .......         0.027         0.265
  Groundwater Inflow .......         0.000         0.000
  RDII Inflow ..............         0.000         0.000
  External Inflow ..........         0.018         0.184
  External Outflow .........         0.058         0.582
  Flooding Loss ............         0.000         0.000
  Evaporation Loss .........         0.000         0.000
  Exfiltration Loss ........         0.000         0.000
  Initial Stored Volume ....         0.000         0.000
  Final Stored Volume ......         0.001         0.013
  Continuity Error (%) .....        -0.081
  
  
  **************************           CSB          NH4N
  Quality Routing Continuity            kg            kg
  **************************    ----------    ----------
  Dry Weather Inflow .......       250.520        23.502
  Wet Weather Inflow .......        28.290         0.000
  Groundwater Inflow .......         0.000         0.000
  RDII Inflow ..............         0.000         0.000
  External Inflow ..........         0.000         0.000
  External Outflow .........       259.899        21.704
  Flooding Loss ............         0.000         0.000
  Exfiltration Loss ........         0.000         0.000
  Mass Reacted .............         0.000         0.000
  Initial Stored Mass ......         0.000         0.000
  Final Stored Mass ........        26.083         2.347
  Continuity Error (%) .....        -2.572        -2.335
  
  
  *************************
  Highest Continuity Errors
  *************************
  Node 143 (1.77%)
  
  
  ***************************
  Time-Step Critical Elements
  ***************************
  Link 140A13 (18.30%)
  Link 140C1 (14.06%)
  
  
  ********************************
  Highest Flow Instability Indexes
  ********************************
  All links are stable.
  
  
  *************************
  Routing Time Step Summary
  *************************
  Minimum Time Step           :     2.05 sec
  Average Time Step           :     4.28 sec
  Maximum Time Step           :     5.00 sec
  Percent in Steady State     :    -0.00
  Average Iterations per Step :     2.00
  Percent Not Converging      :     0.00
  
  
  ***************************
  Subcatchment Runoff Summary
  ***************************
  
  --------------------------------------------------------------------------------------------------------
                            Total      Total      Total      Total      Total       Total     Peak  Runoff
                           Precip      Runon       Evap      Infil     Runoff      Runoff   Runoff   Coeff
  Subcatchment                 mm         mm         mm         mm         mm    10^6 ltr      LPS
  --------------------------------------------------------------------------------------------------------
  SC1                       24.80       0.00       0.00       0.00      24.58        0.02     1.66   0.991
  SC2                       24.80       0.00       0.00       0.00      24.58        0.02     1.66   0.991
  9                         24.80       0.00       0.00       0.00      24.58        0.02     1.66   0.991
  13                        24.80       0.00       0.00       0.00      24.57        0.19    12.88   0.991
  
  
  ****************************
  Subcatchment Washoff Summary
  ****************************
  
  ------------------------------------------------
                                 CSB          NH4N
  Subcatchment                    kg            kg
  ------------------------------------------------
  SC1                          2.630         0.000
  SC2                          2.630         0.000
  9                            2.630         0.000
  13                          20.476         0.000
  ------------------------------------------------
  System                      28.365         0.000
  
  
  ******************
  Node Depth Summary
  ******************
  
  ---------------------------------------------------------------------------------
                                 Average  Maximum  Maximum  Time of Max    Reported
                                   Depth    Depth      HGL   Occurrence   Max Depth
  Node                 Type       Meters   Meters   Meters  days hr:min      Meters
  ---------------------------------------------------------------------------------
  1                    JUNCTION     0.00     0.00   301.14     0  00:00        0.00
  2                    JUNCTION     0.00     0.00   298.60     0  00:00        0.00
  3                    JUNCTION     0.00     0.00   299.93     0  00:00        0.00
  4                    JUNCTION     0.00     0.00   292.65     0  00:00        0.00
  5                    JUNCTION     0.00     0.00   297.12     0  00:00        0.00
  6                    JUNCTION     0.00     0.00   286.52     0  00:00        0.00
  8                    JUNCTION     0.00     0.00   291.50     0  00:00        0.00
  10                   JUNCTION     0.00     0.00   282.90     0  00:00        0.00
  11                   JUNCTION     0.00     0.00   291.35     0  00:00        0.00
  12                   JUNCTION     0.00     0.00   280.52     0  00:00        0.00
  14                   JUNCTION     0.00     0.00   282.15     0  00:00        0.00
  15                   JUNCTION     0.00     0.00   280.24     0  00:00        0.00
  16                   JUNCTION     0.00     0.00   283.49     0  00:00        0.00
  17                   JUNCTION     0.00     0.00   286.50     0  00:00        0.00
  18                   JUNCTION     0.00     0.00   266.14     0  00:00        0.00
  19                   JUNCTION     0.00     0.00   264.56     0  00:00        0.00
  20                   JUNCTION     0.00     0.00   263.58     0  00:00        0.00
  21                   JUNCTION     0.00     0.00   264.06     0  00:00        0.00
  22                   JUNCTION     0.00     0.00   267.54     0  00:00        0.00
  23                   JUNCTION     0.00     0.00   267.88     0  00:00        0.00
  24                   JUNCTION     0.00     0.00   273.36     0  00:00        0.00
  25                   JUNCTION     0.00     0.00   280.22     0  00:00        0.00
  26                   JUNCTION     0.00     0.00   273.00     0  00:00        0.00
  27                   JUNCTION     0.00     0.00   278.80     0  00:00        0.00
  29                   JUNCTION     0.00     0.00   275.85     0  00:00        0.00
  30                   JUNCTION     0.00     0.00   264.80     0  00:00        0.00
  31                   JUNCTION     0.00     0.00   261.36     0  00:00        0.00
  32                   JUNCTION     0.00     0.00   271.09     0  00:00        0.00
  33                   JUNCTION     0.00     0.00   266.10     0  00:00        0.00
  34                   JUNCTION     0.00     0.00   267.69     0  00:00        0.00
  35                   JUNCTION     0.00     0.00   261.43     0  00:00        0.00
  36                   JUNCTION     0.00     0.00   258.34     0  00:00        0.00
  37                   JUNCTION     0.00     0.00   263.30     0  00:00        0.00
  38                   JUNCTION     0.00     0.00   254.03     0  00:00        0.00
  39                   JUNCTION     0.00     0.00   260.61     0  00:00        0.00
  40                   JUNCTION     0.00     0.00   279.07     0  00:00        0.00
  41                   JUNCTION     0.00     0.00   247.99     0  12:47        0.00
  42                   JUNCTION     0.00     0.01   248.21     0  12:42        0.01
  43                   JUNCTION     0.00     0.00   258.90     0  00:00        0.00
  44                   JUNCTION     0.00     0.00   248.78     0  00:00        0.00
  45                   JUNCTION     0.00     0.00   243.82     0  00:00        0.00
  46                   JUNCTION     0.00     0.00   240.77     0  00:00        0.00
  47                   JUNCTION     0.00     0.00   242.61     0  00:00        0.00
  48                   JUNCTION     0.00     0.00   243.65     0  00:00        0.00
  49                   JUNCTION     0.00     0.00   238.58     0  00:00        0.00
  50                   JUNCTION     0.00     0.00   239.39     0  00:00        0.00
  51                   JUNCTION     0.00     0.00   239.87     0  00:00        0.00
  53                   JUNCTION     0.00     0.00   298.94     0  00:00        0.00
  54                   JUNCTION     0.00     0.00   298.29     0  00:00        0.00
  55                   JUNCTION     0.00     0.00   298.79     0  00:00        0.00
  56                   JUNCTION     0.00     0.00   298.34     0  00:00        0.00
  57                   JUNCTION     0.00     0.00   297.86     0  00:00        0.00
  58                   JUNCTION     0.00     0.00   297.95     0  00:00        0.00
  59                   JUNCTION     0.00     0.00   297.08     0  00:00        0.00
  60                   JUNCTION     0.00     0.00   296.98     0  00:00        0.00
  61                   JUNCTION     0.00     0.00   297.84     0  00:00        0.00
  62                   JUNCTION     0.00     0.00   297.63     0  00:00        0.00
  63                   JUNCTION     0.00     0.00   297.45     0  00:00        0.00
  64                   JUNCTION     0.00     0.00   297.38     0  00:00        0.00
  65                   JUNCTION     0.01     0.01   296.70     0  13:00        0.01
  66                   JUNCTION     0.00     0.00   296.63     0  00:00        0.00
  67                   JUNCTION     0.01     0.01   296.38     0  13:00        0.01
  68                   JUNCTION     0.01     0.01   295.87     1  13:00        0.01
  69                   JUNCTION     0.01     0.01   295.52     1  13:00        0.01
  70                   JUNCTION     0.01     0.01   295.02     1  13:01        0.01
  71                   JUNCTION     0.01     0.01   294.51     1  13:01        0.01
  72                   JUNCTION     0.01     0.01   293.87     1  13:02        0.01
  73                   JUNCTION     0.01     0.01   293.44     1  13:02        0.01
  74                   JUNCTION     0.01     0.01   292.97     1  13:03        0.01
  75                   JUNCTION     0.01     0.01   292.52     1  13:03        0.01
  76                   JUNCTION     0.01     0.01   292.14     1  13:04        0.01
  77                   JUNCTION     0.01     0.01   291.82     1  13:05        0.01
  78                   JUNCTION     0.01     0.01   291.72     1  13:05        0.01
  79                   JUNCTION     0.01     0.01   291.67     1  13:06        0.01
  80                   JUNCTION     0.00     0.00   296.41     0  00:00        0.00
  81                   JUNCTION     0.00     0.00   296.50     0  00:00        0.00
  82                   JUNCTION     0.01     0.02   291.41     1  13:08        0.02
  83                   JUNCTION     0.01     0.01   291.43     1  13:07        0.01
  84                   JUNCTION     0.01     0.01   291.33     1  13:08        0.01
  85                   JUNCTION     0.01     0.02   291.31     1  13:10        0.02
  86                   JUNCTION     0.00     0.00   295.82     0  00:00        0.00
  87                   JUNCTION     0.01     0.01   291.25     1  13:11        0.01
  88                   JUNCTION     0.00     0.00   296.94     0  00:00        0.00
  89                   JUNCTION     0.00     0.00   295.37     0  00:00        0.00
  90                   JUNCTION     0.01     0.02   291.11     1  13:11        0.02
  91                   JUNCTION     0.00     0.00   293.42     0  00:00        0.00
  92                   JUNCTION     0.01     0.01   291.01     1  13:13        0.01
  93                   JUNCTION     0.01     0.01   290.67     1  13:14        0.01
  94                   JUNCTION     0.01     0.01   290.54     1  13:15        0.01
  95                   JUNCTION     0.01     0.01   290.10     1  13:00        0.01
  97                   JUNCTION     0.00     0.00   286.05     0  00:00        0.00
  98                   JUNCTION     0.00     0.00   291.40     0  00:00        0.00
  100                  JUNCTION     0.01     0.02   289.32     1  13:00        0.02
  102                  JUNCTION     0.00     0.00   284.39     0  00:00        0.00
  104                  JUNCTION     0.02     0.02   288.32     1  13:00        0.02
  105                  JUNCTION     0.02     0.02   288.16     1  13:00        0.02
  106                  JUNCTION     0.00     0.00   283.25     0  00:00        0.00
  107                  JUNCTION     0.00     0.00   281.66     0  00:00        0.00
  108                  JUNCTION     0.02     0.02   288.06     1  13:00        0.02
  109                  JUNCTION     0.01     0.02   287.97     1  13:00        0.02
  110                  JUNCTION     0.00     0.00   283.00     0  00:00        0.00
  111                  JUNCTION     0.00     0.00   281.32     0  00:00        0.00
  112                  JUNCTION     0.00     0.00   281.05     0  00:00        0.00
  113                  JUNCTION     0.00     0.00   287.41     0  00:00        0.00
  114                  JUNCTION     0.01     0.01   287.42     1  13:01        0.01
  115                  JUNCTION     0.00     0.00   280.54     0  00:00        0.00
  116                  JUNCTION     0.00     0.00   286.60     0  00:00        0.00
  117                  JUNCTION     0.00     0.00   280.77     0  00:00        0.00
  118                  JUNCTION     0.00     0.00   280.62     0  13:00        0.00
  119                  JUNCTION     0.01     0.01   286.51     1  13:01        0.01
  120                  JUNCTION     0.00     0.00   280.38     1  13:00        0.00
  121                  JUNCTION     0.00     0.00   280.22     0  13:00        0.00
  122                  JUNCTION     0.00     0.01   280.20     1  12:08        0.01
  123                  JUNCTION     0.01     0.02   285.07     1  00:30        0.02
  124                  JUNCTION     0.00     0.00   280.14     0  00:00        0.00
  125                  JUNCTION     0.01     0.01   280.01     1  13:00        0.01
  126                  JUNCTION     0.00     0.01   279.60     0  12:15        0.01
  127                  JUNCTION     0.00     0.00   279.75     0  00:00        0.00
  128                  JUNCTION     0.00     0.01   279.70     0  13:00        0.01
  129                  JUNCTION     0.00     0.01   279.24     0  12:17        0.01
  130                  JUNCTION     0.01     0.02   283.76     1  00:30        0.02
  131                  JUNCTION     0.00     0.01   279.11     1  12:15        0.01
  132                  JUNCTION     0.01     0.01   279.06     1  13:00        0.01
  133                  JUNCTION     0.01     0.02   282.78     1  00:30        0.02
  134                  JUNCTION     0.00     0.01   278.61     0  12:26        0.01
  135                  JUNCTION     0.00     0.00   279.64     0  00:00        0.00
  136                  JUNCTION     0.00     0.00   280.48     0  00:00        0.00
  137                  JUNCTION     0.01     0.02   282.27     1  00:31        0.02
  138                  JUNCTION     0.00     0.00   278.17     0  00:00        0.00
  139                  JUNCTION     0.00     0.00   281.08     0  00:00        0.00
  140                  JUNCTION     0.01     0.01   278.01     1  13:00        0.01
  141                  JUNCTION     0.00     0.00   281.40     0  00:00        0.00
  142                  JUNCTION     0.02     0.04   280.81     1  00:31        0.03
  143                  JUNCTION     0.00     0.01   280.81     1  00:32        0.00
  144                  JUNCTION     0.00     0.00   280.84     0  00:00        0.00
  145                  JUNCTION     0.02     0.04   280.59     1  00:32        0.04
  146                  JUNCTION     0.01     0.01   277.36     1  13:01        0.01
  147                  JUNCTION     0.00     0.00   281.07     0  00:00        0.00
  148                  JUNCTION     0.00     0.00   281.34     0  00:00        0.00
  149                  JUNCTION     0.02     0.03   280.39     1  00:32        0.03
  150                  JUNCTION     0.00     0.00   281.74     0  00:00        0.00
  151                  JUNCTION     0.02     0.03   280.27     1  00:33        0.03
  152                  JUNCTION     0.00     0.00   282.47     0  00:00        0.00
  153                  JUNCTION     0.01     0.01   276.40     1  13:01        0.01
  154                  JUNCTION     0.01     0.02   280.09     1  00:33        0.02
  155                  JUNCTION     0.00     0.00   283.00     0  00:00        0.00
  156                  JUNCTION     0.01     0.02   277.59     1  00:34        0.02
  157                  JUNCTION     0.01     0.03   277.16     1  00:34        0.03
  158                  JUNCTION     0.01     0.01   274.97     1  13:02        0.01
  159                  JUNCTION     0.00     0.00   284.04     0  00:00        0.00
  160                  JUNCTION     0.01     0.02   276.72     1  00:34        0.02
  161                  JUNCTION     0.00     0.00   285.69     0  00:00        0.00
  162                  JUNCTION     0.01     0.01   277.01     1  12:31        0.01
  163                  JUNCTION     0.00     0.00   277.24     0  00:00        0.00
  164                  JUNCTION     0.00     0.00   282.55     0  00:00        0.00
  165                  JUNCTION     0.02     0.03   275.39     1  00:35        0.03
  166                  JUNCTION     0.01     0.01   274.23     1  13:03        0.01
  167                  JUNCTION     0.00     0.00   282.91     0  00:00        0.00
  168                  JUNCTION     0.02     0.02   275.09     1  00:36        0.02
  169                  JUNCTION     0.02     0.03   273.85     1  00:36        0.03
  170                  JUNCTION     0.01     0.01   273.47     1  13:04        0.01
  171                  JUNCTION     0.02     0.03   272.83     1  00:30        0.03
  172                  JUNCTION     0.02     0.04   270.81     1  00:31        0.04
  173                  JUNCTION     0.02     0.03   270.22     1  00:31        0.03
  174                  JUNCTION     0.02     0.04   269.32     1  00:32        0.04
  175                  JUNCTION     0.02     0.03   268.74     1  00:33        0.03
  176                  JUNCTION     0.02     0.03   267.75     1  00:34        0.03
  177                  JUNCTION     0.02     0.03   266.56     1  00:34        0.03
  178                  JUNCTION     0.02     0.04   265.50     1  00:35        0.04
  179                  JUNCTION     0.02     0.03   264.82     1  00:36        0.03
  180                  JUNCTION     0.02     0.03   263.71     1  00:36        0.03
  181                  JUNCTION     0.03     0.04   262.59     1  00:37        0.04
  182                  JUNCTION     0.00     0.00   264.01     0  00:00        0.00
  183                  JUNCTION     0.03     0.04   262.40     1  00:38        0.04
  184                  JUNCTION     0.00     0.00   262.81     0  00:00        0.00
  185                  JUNCTION     0.03     0.05   262.11     1  00:39        0.05
  186                  JUNCTION     0.00     0.00   264.47     0  00:00        0.00
  187                  JUNCTION     0.02     0.04   261.99     1  00:40        0.04
  188                  JUNCTION     0.00     0.00   264.68     0  00:00        0.00
  189                  JUNCTION     0.00     0.00   263.00     0  13:00        0.00
  190                  JUNCTION     0.03     0.04   261.55     1  00:40        0.04
  191                  JUNCTION     0.00     0.00   262.24     0  00:00        0.00
  192                  JUNCTION     0.02     0.04   261.44     1  00:41        0.04
  193                  JUNCTION     0.00     0.00   264.72     0  00:00        0.00
  194                  JUNCTION     0.00     0.00   262.94     0  00:00        0.00
  195                  JUNCTION     0.03     0.04   261.22     1  00:42        0.04
  196                  JUNCTION     0.03     0.05   260.79     1  00:43        0.05
  197                  JUNCTION     0.00     0.00   263.51     0  00:00        0.00
  198                  JUNCTION     0.00     0.00   266.57     0  00:00        0.00
  199                  JUNCTION     0.00     0.00   266.88     0  00:00        0.00
  200                  JUNCTION     0.04     0.05   260.70     1  00:44        0.05
  201                  JUNCTION     0.03     0.05   260.63     1  00:50        0.05
  202                  JUNCTION     0.03     0.05   260.51     1  00:50        0.05
  203                  JUNCTION     0.03     0.04   260.21     1  00:51        0.04
  204                  JUNCTION     0.00     0.00   279.80     0  00:00        0.00
  205                  JUNCTION     0.00     0.00   275.96     0  00:00        0.00
  206                  JUNCTION     0.03     0.05   259.80     1  00:51        0.04
  207                  JUNCTION     0.00     0.00   272.90     0  00:00        0.00
  208                  JUNCTION     0.00     0.00   267.00     0  00:00        0.00
  209                  JUNCTION     0.03     0.05   259.63     1  00:52        0.04
  210                  JUNCTION     0.00     0.00   266.90     0  00:00        0.00
  211                  JUNCTION     0.00     0.00   266.75     0  00:00        0.00
  212                  JUNCTION     0.03     0.04   259.49     1  00:52        0.04
  213                  JUNCTION     0.00     0.00   272.82     0  00:00        0.00
  214                  JUNCTION     0.00     0.00   266.60     0  00:00        0.00
  215                  JUNCTION     0.03     0.05   259.23     1  00:53        0.05
  216                  JUNCTION     0.00     0.00   259.99     1  12:18        0.00
  217                  JUNCTION     0.03     0.05   259.04     1  00:53        0.05
  218                  JUNCTION     0.03     0.05   258.85     1  00:54        0.05
  219                  JUNCTION     0.03     0.06   258.67     1  00:54        0.06
  220                  JUNCTION     0.00     0.00   278.50     0  00:00        0.00
  221                  JUNCTION     0.00     0.00   277.50     0  00:00        0.00
  222                  JUNCTION     0.00     0.00   268.00     0  00:00        0.00
  223                  JUNCTION     0.03     0.04   258.54     1  00:55        0.04
  224                  JUNCTION     0.00     0.00   267.80     0  00:00        0.00
  225                  JUNCTION     0.00     0.00   267.52     0  00:00        0.00
  226                  JUNCTION     0.02     0.04   258.23     1  00:55        0.04
  227                  JUNCTION     0.00     0.00   268.10     0  00:00        0.00
  228                  JUNCTION     0.00     0.00   267.52     0  00:00        0.00
  229                  JUNCTION     0.00     0.01   261.37     0  13:00        0.01
  230                  JUNCTION     0.00     0.00   261.20     1  12:52        0.00
  231                  JUNCTION     0.00     0.00   258.10     1  12:49        0.00
  232                  JUNCTION     0.03     0.05   257.61     1  00:56        0.05
  233                  JUNCTION     0.00     0.00   270.60     0  00:00        0.00
  234                  JUNCTION     0.00     0.00   264.00     0  00:00        0.00
  235                  JUNCTION     0.00     0.00   262.88     1  12:09        0.00
  236                  JUNCTION     0.02     0.04   257.39     1  00:56        0.04
  237                  JUNCTION     0.00     0.00   269.16     0  00:00        0.00
  238                  JUNCTION     0.03     0.05   257.00     1  00:57        0.05
  239                  JUNCTION     0.00     0.00   259.82     1  12:22        0.00
  240                  JUNCTION     0.00     0.00   266.07     0  00:00        0.00
  241                  JUNCTION     0.00     0.00   267.68     0  00:00        0.00
  242                  JUNCTION     0.00     0.00   264.26     0  00:00        0.00
  243                  JUNCTION     0.03     0.04   256.82     1  00:57        0.04
  244                  JUNCTION     0.00     0.00   259.66     0  00:00        0.00
  245                  JUNCTION     0.00     0.00   259.84     0  00:00        0.00
  246                  JUNCTION     0.02     0.03   256.50     1  00:58        0.03
  247                  JUNCTION     0.00     0.00   256.00     0  00:00        0.00
  248                  JUNCTION     0.00     0.00   257.46     0  00:00        0.00
  249                  JUNCTION     0.02     0.03   255.93     1  00:58        0.03
  250                  JUNCTION     0.00     0.00   256.05     0  12:36        0.00
  251                  JUNCTION     0.00     0.00   254.47     1  12:29        0.00
  252                  JUNCTION     0.02     0.03   254.47     1  00:58        0.03
  253                  JUNCTION     0.00     0.00   258.12     0  00:00        0.00
  254                  JUNCTION     0.00     0.00   253.14     0  12:47        0.00
  255                  JUNCTION     0.00     0.00   253.55     1  12:40        0.00
  256                  JUNCTION     0.00     0.00   252.72     1  12:40        0.00
  257                  JUNCTION     0.00     0.00   253.88     0  00:00        0.00
  258                  JUNCTION     0.00     0.00   254.66     0  00:00        0.00
  259                  JUNCTION     0.00     0.00   255.00     0  00:00        0.00
  260                  JUNCTION     0.02     0.04   253.18     1  00:59        0.04
  261                  JUNCTION     0.00     0.00   261.11     0  00:00        0.00
  262                  JUNCTION     0.00     0.00   251.73     0  12:54        0.00
  263                  JUNCTION     0.01     0.02   252.66     1  00:59        0.02
  264                  JUNCTION     0.03     0.04   250.25     1  00:59        0.04
  265                  JUNCTION     0.01     0.01   250.47     0  12:57        0.01
  266                  JUNCTION     0.03     0.05   249.96     1  01:00        0.05
  267                  JUNCTION     0.03     0.05   249.73     1  01:00        0.05
  268                  JUNCTION     0.03     0.07   249.43     1  00:30        0.07
  269                  JUNCTION     0.04     0.08   248.96     1  00:30        0.08
  270                  JUNCTION     0.00     0.00   260.29     0  00:00        0.00
  271                  JUNCTION     0.03     0.07   248.61     1  00:30        0.07
  272                  JUNCTION     0.00     0.00   278.74     0  00:00        0.00
  273                  JUNCTION     0.00     0.00   252.43     0  00:00        0.00
  274                  JUNCTION     0.00     0.00   277.65     0  00:00        0.00
  275                  JUNCTION     0.03     0.06   247.92     1  00:31        0.06
  276                  JUNCTION     0.04     0.08   247.81     1  00:31        0.08
  277                  JUNCTION     0.00     0.00   252.30     0  00:00        0.00
  278                  JUNCTION     0.00     0.00   251.25     0  00:00        0.00
  279                  JUNCTION     0.04     0.08   247.65     1  00:31        0.08
  280                  JUNCTION     0.00     0.00   275.28     0  00:00        0.00
  281                  JUNCTION     0.04     0.08   247.53     1  00:31        0.08
  282                  JUNCTION     0.00     0.00   251.00     0  12:19        0.00
  283                  JUNCTION     0.05     0.11   247.46     1  00:31        0.10
  284                  JUNCTION     0.00     0.00   273.65     0  00:00        0.00
  285                  JUNCTION     0.05     0.10   247.42     1  00:32        0.10
  286                  JUNCTION     0.00     0.00   272.15     0  00:00        0.00
  287                  JUNCTION     0.04     0.09   247.39     1  00:32        0.09
  288                  JUNCTION     0.00     0.00   272.43     0  00:00        0.00
  289                  JUNCTION     0.00     0.00   271.12     0  00:00        0.00
  290                  JUNCTION     0.03     0.06   247.20     1  00:32        0.05
  291                  JUNCTION     0.00     0.00   268.89     1  12:04        0.00
  292                  JUNCTION     0.00     0.00   266.44     0  12:06        0.00
  293                  JUNCTION     0.04     0.08   246.40     1  00:33        0.08
  294                  JUNCTION     0.00     0.00   261.76     0  12:09        0.00
  295                  JUNCTION     0.00     0.01   249.26     0  12:56        0.01
  296                  JUNCTION     0.00     0.00   252.50     1  12:48        0.00
  299                  JUNCTION     0.04     0.09   246.11     1  00:33        0.09
  300                  JUNCTION     0.00     0.01   253.04     0  12:48        0.01
  301                  JUNCTION     0.03     0.06   245.92     1  00:33        0.06
  302                  JUNCTION     0.00     0.00   248.58     0  00:00        0.00
  303                  JUNCTION     0.03     0.06   245.35     1  00:34        0.06
  304                  JUNCTION     0.00     0.00   249.73     0  00:00        0.00
  305                  JUNCTION     0.00     0.00   252.69     0  00:00        0.00
  306                  JUNCTION     0.03     0.07   244.41     1  00:34        0.06
  307                  JUNCTION     0.00     0.00   252.80     0  00:00        0.00
  308                  JUNCTION     0.03     0.06   243.81     1  00:34        0.06
  309                  JUNCTION     0.00     0.00   258.81     0  00:00        0.00
  310                  JUNCTION     0.00     0.00   244.00     0  00:00        0.00
  311                  JUNCTION     0.04     0.08   242.70     1  00:35        0.08
  312                  JUNCTION     0.04     0.09   242.29     1  00:35        0.09
  313                  JUNCTION     0.05     0.09   242.17     1  00:36        0.09
  314                  JUNCTION     0.03     0.07   242.02     1  00:36        0.07
  315                  JUNCTION     0.04     0.09   241.59     1  00:37        0.09
  316                  JUNCTION     0.03     0.07   241.28     1  00:37        0.07
  317                  JUNCTION     0.03     0.06   240.54     1  00:38        0.06
  318                  JUNCTION     0.00     0.00   241.04     0  00:00        0.00
  319                  JUNCTION     0.00     0.00   240.12     0  00:00        0.00
  320                  JUNCTION     0.04     0.08   239.56     1  00:38        0.08
  321                  JUNCTION     0.05     0.10   239.46     1  00:38        0.10
  322                  JUNCTION     0.04     0.09   239.40     1  00:39        0.09
  323                  JUNCTION     0.00     0.00   242.70     0  00:00        0.00
  324                  JUNCTION     0.00     0.00   242.55     0  00:00        0.00
  325                  JUNCTION     0.00     0.00   239.67     0  00:00        0.00
  326                  JUNCTION     0.05     0.10   239.25     1  00:39        0.10
  327                  JUNCTION     0.04     0.08   239.09     1  00:40        0.08
  328                  JUNCTION     0.04     0.08   238.79     1  00:40        0.08
  329                  JUNCTION     0.00     0.00   238.16     0  00:00        0.00
  330                  JUNCTION     0.03     0.05   238.18     1  00:41        0.05
  331                  JUNCTION     0.04     0.08   237.73     1  00:41        0.07
  332                  JUNCTION     0.00     0.00   239.70     0  00:00        0.00
  333                  JUNCTION     0.05     0.10   237.31     1  00:42        0.10
  334                  JUNCTION     0.05     0.10   237.29     1  00:42        0.10
  335                  JUNCTION     0.00     0.00   239.60     0  00:00        0.00
  336                  JUNCTION     0.04     0.09   237.12     1  00:43        0.09
  337                  JUNCTION     0.04     0.09   236.86     1  00:44        0.09
  338                  JUNCTION     0.05     0.10   236.60     1  00:44        0.10
  339                  JUNCTION     0.04     0.09   236.42     1  00:45        0.09
  340                  JUNCTION     0.04     0.09   236.15     1  00:45        0.09
  341                  JUNCTION     0.04     0.09   235.89     1  00:46        0.09
  342                  JUNCTION     0.04     0.08   235.65     1  00:47        0.08
  343                  JUNCTION     0.04     0.08   234.35     1  00:48        0.08
  Out1                 OUTFALL      0.04     0.08   234.01     1  00:49        0.08
  
  
  *******************
  Node Inflow Summary
  *******************
  
  -------------------------------------------------------------------------------------------------
                                  Maximum  Maximum                  Lateral       Total        Flow
                                  Lateral    Total  Time of Max      Inflow      Inflow     Balance
                                   Inflow   Inflow   Occurrence      Volume      Volume       Error
  Node                 Type           LPS      LPS  days hr:min    10^6 ltr    10^6 ltr     Percent
  -------------------------------------------------------------------------------------------------
  1                    JUNCTION      0.00     0.00     0  00:00           0           0       0.000 ltr
  2                    JUNCTION      0.00     0.00     0  00:00           0           0       0.000 ltr
  3                    JUNCTION      0.00     0.00     0  00:00           0           0       0.000 ltr
  4                    JUNCTION      0.00     0.00     0  00:00           0           0       0.000 ltr
  5                    JUNCTION      0.00     0.00     0  00:00           0           0       0.000 ltr
  6                    JUNCTION      0.00     0.00     0  00:00           0           0       0.000 ltr
  8                    JUNCTION      0.00     0.00     0  00:00           0           0       0.000 ltr
  10                   JUNCTION      0.00     0.00     0  00:00           0           0       0.000 ltr
  11                   JUNCTION      0.00     0.00     0  00:00           0           0       0.000 ltr
  12                   JUNCTION      0.00     0.00     0  00:00           0           0       0.000 ltr
  14                   JUNCTION      0.00     0.00     0  00:00           0           0       0.000 ltr
  15                   JUNCTION      0.00     0.00     0  00:00           0           0       0.000 ltr
  16                   JUNCTION      0.00     0.00     0  00:00           0           0       0.000 ltr
  17                   JUNCTION      0.00     0.00     0  00:00           0           0       0.000 ltr
  18                   JUNCTION      0.00     0.00     0  00:00           0           0       0.000 ltr
  19                   JUNCTION      0.00     0.00     0  00:00           0           0       0.000 ltr
  20                   JUNCTION      0.00     0.00     0  00:00           0           0       0.000 ltr
  21                   JUNCTION      0.00     0.00     0  00:00           0           0       0.000 ltr
  22                   JUNCTION      0.00     0.00     0  00:00           0           0       0.000 ltr
  23                   JUNCTION      0.00     0.00     0  00:00           0           0       0.000 ltr
  24                   JUNCTION      0.00     0.00     0  00:00           0           0       0.000 ltr
  25                   JUNCTION      0.00     0.00     0  00:00           0           0       0.000 ltr
  26                   JUNCTION      0.00     0.00     0  00:00           0           0       0.000 ltr
  27                   JUNCTION      0.00     0.00     0  00:00           0           0       0.000 ltr
  29                   JUNCTION      0.00     0.00     0  00:00           0           0       0.000 ltr
  30                   JUNCTION      0.00     0.00     0  00:00           0           0       0.000 ltr
  31                   JUNCTION      0.00     0.00     0  00:00           0           0       0.000 ltr
  32                   JUNCTION      0.00     0.00     0  00:00           0           0       0.000 ltr
  33                   JUNCTION      0.00     0.00     0  00:00           0           0       0.000 ltr
  34                   JUNCTION      0.00     0.00     0  00:00           0           0       0.000 ltr
  35                   JUNCTION      0.00     0.00     0  00:00           0           0       0.000 ltr
  36                   JUNCTION      0.00     0.00     0  00:00           0           0       0.000 ltr
  37                   JUNCTION      0.00     0.00     0  00:00           0           0       0.000 ltr
  38                   JUNCTION      0.00     0.00     0  00:00           0           0       0.000 ltr
  39                   JUNCTION      0.00     0.00     0  00:00           0           0       0.000 ltr
  40                   JUNCTION      0.00     0.00     0  00:00           0           0       0.000 ltr
  41                   JUNCTION      0.00     0.07     0  12:58           0     0.00742       0.074
  42                   JUNCTION      0.00     0.07     0  12:40           0     0.00743       0.104
  43                   JUNCTION      0.00     0.00     0  00:00           0           0       0.000 ltr
  44                   JUNCTION      0.00     0.00     0  00:00           0           0       0.000 ltr
  45                   JUNCTION      0.00     0.00     0  00:00           0           0       0.000 ltr
  46                   JUNCTION      0.00     0.00     0  00:00           0           0       0.000 ltr
  47                   JUNCTION      0.00     0.00     0  00:00           0           0       0.000 ltr
  48                   JUNCTION      0.00     0.00     0  00:00           0           0       0.000 ltr
  49                   JUNCTION      0.00     0.00     0  00:00           0           0       0.000 ltr
  50                   JUNCTION      0.00     0.00     0  00:00           0           0       0.000 ltr
  51                   JUNCTION      0.00     0.00     0  00:00           0           0       0.000 ltr
  53                   JUNCTION      0.00     0.00     0  00:00           0           0       0.000 ltr
  54                   JUNCTION      0.00     0.00     0  00:00           0           0       0.000 ltr
  55                   JUNCTION      0.00     0.00     0  00:00           0           0       0.000 ltr
  56                   JUNCTION      0.00     0.00     0  00:00           0           0       0.000 ltr
  57                   JUNCTION      0.00     0.00     0  00:00           0           0       0.000 ltr
  58                   JUNCTION      0.00     0.00     0  00:00           0           0       0.000 ltr
  59                   JUNCTION      0.00     0.00     0  00:00           0           0       0.000 ltr
  60                   JUNCTION      0.00     0.00     0  00:00           0           0       0.000 ltr
  61                   JUNCTION      0.00     0.00     0  00:00           0           0       0.000 ltr
  62                   JUNCTION      0.00     0.00     0  00:00           0           0       0.000 ltr
  63                   JUNCTION      0.00     0.00     0  00:00           0           0       0.000 ltr
  64                   JUNCTION      0.00     0.00     0  00:00           0           0       0.000 ltr
  65                   JUNCTION      0.17     0.17     0  12:00      0.0178      0.0178       0.161
  66                   JUNCTION      0.00     0.00     0  00:00           0           0       0.000 ltr
  67                   JUNCTION      0.00     0.17     0  12:59           0      0.0177       0.128
  68                   JUNCTION      0.00     0.17     0  13:00           0      0.0177       0.087
  69                   JUNCTION      0.11     0.28     1  13:00      0.0184      0.0361       0.094
  70                   JUNCTION      0.00     0.28     1  13:00           0      0.0361       0.064
  71                   JUNCTION      0.00     0.28     1  13:01           0       0.036       0.065
  72                   JUNCTION      0.00     0.28     1  13:01           0       0.036       0.065
  73                   JUNCTION      0.00     0.28     1  13:02           0       0.036       0.062
  74                   JUNCTION      0.00     0.28     1  13:02           0       0.036       0.055
  75                   JUNCTION      0.00     0.28     1  13:03           0      0.0359       0.067
  76                   JUNCTION      0.00     0.28     1  13:03           0      0.0359       0.079
  77                   JUNCTION      0.00     0.28     1  13:04           0      0.0359       0.080
  78                   JUNCTION      0.00     0.28     1  13:05           0      0.0359       0.048
  79                   JUNCTION      0.00     0.28     1  13:05           0      0.0358       0.082
  80                   JUNCTION      0.00     0.00     0  00:00           0           0       0.000 ltr
  81                   JUNCTION      0.00     0.00     0  00:00           0           0       0.000 ltr
  82                   JUNCTION      0.00     0.28     1  13:07           0      0.0358       0.067
  83                   JUNCTION      0.00     0.28     1  13:06           0      0.0358       0.093
  84                   JUNCTION      0.00     0.28     1  13:08           0      0.0358       0.062
  85                   JUNCTION      0.00     0.28     1  13:09           0      0.0357       0.123
  86                   JUNCTION      0.00     0.00     0  00:00           0           0       0.000 ltr
  87                   JUNCTION      0.00     0.28     1  13:10           0      0.0357       0.080
  88                   JUNCTION      0.00     0.00     0  00:00           0           0       0.000 ltr
  89                   JUNCTION      0.00     0.00     0  00:00           0           0       0.000 ltr
  90                   JUNCTION      0.00     0.28     1  13:11           0      0.0357       0.094
  91                   JUNCTION      0.00     0.00     0  00:00           0           0       0.000 ltr
  92                   JUNCTION      0.00     0.28     1  13:12           0      0.0356       0.117
  93                   JUNCTION      0.00     0.28     1  13:13           0      0.0356       0.086
  94                   JUNCTION      0.00     0.28     1  13:14           0      0.0356       0.088
  95                   JUNCTION      0.32     0.60     1  13:00      0.0334      0.0689       0.055
  97                   JUNCTION      0.00     0.00     0  00:00           0           0       0.000 ltr
  98                   JUNCTION      0.00     0.00     0  00:00           0           0       0.000 ltr
  100                  JUNCTION      0.11     0.71     1  13:00      0.0184      0.0872       0.050
  102                  JUNCTION      0.00     0.00     0  00:00           0           0       0.000 ltr
  104                  JUNCTION      0.00     0.71     1  13:00           0      0.0872       0.061
  105                  JUNCTION      0.00     0.71     1  13:00           0      0.0871       0.050
  106                  JUNCTION      0.00     0.00     0  00:00           0           0       0.000 ltr
  107                  JUNCTION      0.00     0.00     0  00:00           0           0       0.000 ltr
  108                  JUNCTION      0.00     0.71     1  13:00           0      0.0871       0.046
  109                  JUNCTION      0.00     0.71     1  13:00           0      0.0871       0.038
  110                  JUNCTION      0.00     0.00     0  00:00           0           0       0.000 ltr
  111                  JUNCTION      0.00     0.00     0  00:00           0           0       0.000 ltr
  112                  JUNCTION      0.00     0.00     0  00:00           0           0       0.000 ltr
  113                  JUNCTION      0.00     0.00     0  00:00           0           0       0.000 ltr
  114                  JUNCTION      0.00     0.71     1  13:00           0       0.087       0.035
  115                  JUNCTION      0.00     0.00     0  00:00           0           0       0.000 ltr
  116                  JUNCTION      0.00     0.00     0  00:00           0           0       0.000 ltr
  117                  JUNCTION      0.00     0.00     0  00:00           0           0       0.000 ltr
  118                  JUNCTION      0.02     0.02     0  12:00     0.00164     0.00164       0.183
  119                  JUNCTION      0.00     0.71     1  13:01           0       0.087       0.038
  120                  JUNCTION      0.00     0.02     0  12:59           0     0.00163       0.201
  121                  JUNCTION      0.00     0.02     0  13:00           0     0.00163       0.231
  122                  JUNCTION      0.07     0.07     0  12:00     0.00732     0.00732       0.114
  123                  JUNCTION      1.66     2.11     1  00:30      0.0246       0.112       0.028
  124                  JUNCTION      0.00     0.00     0  00:00           0           0       0.000 ltr
  125                  JUNCTION      0.07     0.08     0  13:00     0.00701     0.00863       0.118
  126                  JUNCTION      0.00     0.07     0  12:10           0     0.00732       0.116
  127                  JUNCTION      0.00     0.00     0  00:00           0           0       0.000 ltr
  128                  JUNCTION      0.00     0.08     0  13:00           0     0.00862       0.145
  129                  JUNCTION      0.00     0.07     0  12:15           0     0.00731       0.096
  130                  JUNCTION      0.00     2.09     1  00:30           0       0.112       0.030
  131                  JUNCTION      0.00     0.07     0  12:17           0      0.0073       0.109
  132                  JUNCTION      0.11     0.19     1  13:00      0.0184       0.027       0.091
  133                  JUNCTION      0.00     2.08     1  00:30           0       0.111       0.029
  134                  JUNCTION      0.00     0.07     1  12:18           0     0.00729       0.172
  135                  JUNCTION      0.00     0.00     0  00:00           0           0       0.000 ltr
  136                  JUNCTION      0.00     0.00     0  00:00           0           0       0.000 ltr
  137                  JUNCTION      0.00     2.07     1  00:30           0       0.111       0.019
  138                  JUNCTION      0.00     0.00     0  00:00           0           0       0.000 ltr
  139                  JUNCTION      0.00     0.00     0  00:00           0           0       0.000 ltr
  140                  JUNCTION      0.00     0.26     1  13:00           0      0.0343       0.081
  141                  JUNCTION      0.00     0.00     0  00:00           0           0       0.000 ltr
  142                  JUNCTION      0.00     2.07     1  00:31           0       0.111       0.047
  143                  JUNCTION      0.00     0.03     0  23:12           0   2.28e-005       0.403 ltr
  144                  JUNCTION      0.00     0.00     0  00:00           0           0       0.000 ltr
  145                  JUNCTION      0.00     2.03     1  00:31           0       0.111       0.049
  146                  JUNCTION      0.00     0.26     1  13:00           0      0.0342       0.090
  147                  JUNCTION      0.00     0.00     0  00:00           0           0       0.000 ltr
  148                  JUNCTION      0.00     0.00     0  00:00           0           0       0.000 ltr
  149                  JUNCTION      0.00     2.02     1  00:32           0       0.111       0.038
  150                  JUNCTION      0.00     0.00     0  00:00           0           0       0.000 ltr
  151                  JUNCTION      0.00     2.01     1  00:32           0       0.111       0.034
  152                  JUNCTION      0.00     0.00     0  00:00           0           0       0.000 ltr
  153                  JUNCTION      0.00     0.26     1  13:01           0      0.0342       0.065
  154                  JUNCTION      0.00     2.01     1  00:33           0       0.111       0.026
  155                  JUNCTION      0.00     0.00     0  00:00           0           0       0.000 ltr
  156                  JUNCTION      0.00     2.01     1  00:33           0       0.111       0.031
  157                  JUNCTION      0.00     2.00     1  00:34           0       0.111       0.025
  158                  JUNCTION      0.00     0.26     1  13:01           0      0.0342       0.085
  159                  JUNCTION      0.00     0.00     0  00:00           0           0       0.000 ltr
  160                  JUNCTION      0.11     2.15     1  00:34      0.0184        0.14       0.033
  161                  JUNCTION      0.00     0.00     0  00:00           0           0       0.000 ltr
  162                  JUNCTION      0.10     0.10     0  12:00      0.0104      0.0104       0.096
  163                  JUNCTION      0.00     0.00     0  00:00           0           0       0.000 ltr
  164                  JUNCTION      0.00     0.00     0  00:00           0           0       0.000 ltr
  165                  JUNCTION      0.00     2.15     1  00:34           0        0.14       0.049
  166                  JUNCTION      0.00     0.26     1  13:02           0      0.0342       0.080
  167                  JUNCTION      0.00     0.00     0  00:00           0           0       0.000 ltr
  168                  JUNCTION      0.00     2.14     1  00:35           0        0.14       0.035
  169                  JUNCTION      0.00     2.14     1  00:36           0        0.14       0.048
  170                  JUNCTION      0.00     0.26     1  13:03           0      0.0341       0.084
  171                  JUNCTION      1.66     3.75     1  00:30      0.0246       0.198       0.042
  172                  JUNCTION      0.00     3.71     1  00:30           0       0.198       0.054
  173                  JUNCTION      0.00     3.68     1  00:31           0       0.198       0.044
  174                  JUNCTION      0.00     3.66     1  00:32           0       0.198       0.052
  175                  JUNCTION      0.11     3.75     1  00:32      0.0184       0.216       0.043
  176                  JUNCTION      0.00     3.75     1  00:33           0       0.216       0.042
  177                  JUNCTION      0.00     3.73     1  00:34           0       0.216       0.042
  178                  JUNCTION      0.00     3.72     1  00:34           0       0.216       0.050
  179                  JUNCTION      0.00     3.72     1  00:35           0       0.216       0.044
  180                  JUNCTION      0.00     3.71     1  00:36           0       0.216       0.031
  181                  JUNCTION      0.11     3.81     1  00:36      0.0184       0.234       0.046
  182                  JUNCTION      0.00     0.00     0  00:00           0           0       0.000 ltr
  183                  JUNCTION      0.00     3.80     1  00:37           0       0.234       0.042
  184                  JUNCTION      0.00     0.00     0  00:00           0           0       0.000 ltr
  185                  JUNCTION      0.00     3.79     1  00:38           0       0.234       0.061
  186                  JUNCTION      0.00     0.00     0  00:00           0           0       0.000 ltr
  187                  JUNCTION      0.00     3.78     1  00:39           0       0.234       0.048
  188                  JUNCTION      0.00     0.00     0  00:00           0           0       0.000 ltr
  189                  JUNCTION      0.01     0.01     0  12:00      0.0011      0.0011       0.128
  190                  JUNCTION      0.00     3.77     1  00:40           0       0.234       0.041
  191                  JUNCTION      0.00     0.00     0  00:00           0           0       0.000 ltr
  192                  JUNCTION      0.00     3.78     1  00:40           0       0.235       0.034
  193                  JUNCTION      0.00     0.00     0  00:00           0           0       0.000 ltr
  194                  JUNCTION      0.00     0.00     0  00:00           0           0       0.000 ltr
  195                  JUNCTION      0.00     3.77     1  00:41           0       0.235       0.048
  196                  JUNCTION      0.00     3.76     1  00:42           0       0.235       0.074
  197                  JUNCTION      0.00     0.00     0  00:00           0           0       0.000 ltr
  198                  JUNCTION      0.00     0.00     0  00:00           0           0       0.000 ltr
  199                  JUNCTION      0.00     0.00     0  00:00           0           0       0.000 ltr
  200                  JUNCTION      0.00     3.75     1  00:43           0       0.234       0.066
  201                  JUNCTION      1.66     4.90     1  00:50      0.0246       0.259       0.037
  202                  JUNCTION      0.00     4.89     1  00:50           0       0.259       0.042
  203                  JUNCTION      0.00     4.88     1  00:50           0       0.259       0.053
  204                  JUNCTION      0.00     0.00     0  00:00           0           0       0.000 ltr
  205                  JUNCTION      0.00     0.00     0  00:00           0           0       0.000 ltr
  206                  JUNCTION      0.00     4.87     1  00:51           0       0.258       0.043
  207                  JUNCTION      0.00     0.00     0  00:00           0           0       0.000 ltr
  208                  JUNCTION      0.00     0.00     0  00:00           0           0       0.000 ltr
  209                  JUNCTION      0.00     4.86     1  00:51           0       0.258       0.025
  210                  JUNCTION      0.00     0.00     0  00:00           0           0       0.000 ltr
  211                  JUNCTION      0.00     0.00     0  00:00           0           0       0.000 ltr
  212                  JUNCTION      0.00     4.86     1  00:52           0       0.258       0.028
  213                  JUNCTION      0.00     0.00     0  00:00           0           0       0.000 ltr
  214                  JUNCTION      0.00     0.00     0  00:00           0           0       0.000 ltr
  215                  JUNCTION      0.00     4.86     1  00:52           0       0.258       0.041
  216                  JUNCTION      0.06     0.06     0  12:00     0.00573     0.00573       0.049
  217                  JUNCTION      0.11     4.98     1  00:53      0.0184       0.282       0.040
  218                  JUNCTION      0.00     4.98     1  00:53           0       0.282       0.038
  219                  JUNCTION      0.00     4.97     1  00:54           0       0.282       0.049
  220                  JUNCTION      0.00     0.00     0  00:00           0           0       0.000 ltr
  221                  JUNCTION      0.00     0.00     0  00:00           0           0       0.000 ltr
  222                  JUNCTION      0.00     0.00     0  00:00           0           0       0.000 ltr
  223                  JUNCTION      0.00     4.97     1  00:54           0       0.282       0.035
  224                  JUNCTION      0.00     0.00     0  00:00           0           0       0.000 ltr
  225                  JUNCTION      0.00     0.00     0  00:00           0           0       0.000 ltr
  226                  JUNCTION      0.00     4.97     1  00:55           0       0.282       0.027
  227                  JUNCTION      0.00     0.00     0  00:00           0           0       0.000 ltr
  228                  JUNCTION      0.00     0.00     0  00:00           0           0       0.000 ltr
  229                  JUNCTION      0.06     0.06     0  12:00     0.00573     0.00573       0.159
  230                  JUNCTION      0.00     0.06     1  12:46           0     0.00572       0.034
  231                  JUNCTION      0.00     0.10     0  00:03           0     0.00572       0.068
  232                  JUNCTION      0.00     4.99     1  00:55           0       0.287       0.043
  233                  JUNCTION      0.00     0.00     0  00:00           0           0       0.000 ltr
  234                  JUNCTION      0.00     0.00     0  00:00           0           0       0.000 ltr
  235                  JUNCTION      0.02     0.02     0  12:00     0.00255     0.00255       0.120
  236                  JUNCTION      0.00     4.99     1  00:56           0       0.287       0.030
  237                  JUNCTION      0.00     0.00     0  00:00           0           0       0.000 ltr
  238                  JUNCTION      0.00     4.99     1  00:56           0       0.287       0.039
  239                  JUNCTION      0.00     0.02     0  12:11           0     0.00255       0.153
  240                  JUNCTION      0.00     0.00     0  00:00           0           0       0.000 ltr
  241                  JUNCTION      0.00     0.00     0  00:00           0           0       0.000 ltr
  242                  JUNCTION      0.00     0.00     0  00:00           0           0       0.000 ltr
  243                  JUNCTION      0.00     4.98     1  00:57           0       0.287       0.033
  244                  JUNCTION      0.00     0.00     0  00:00           0           0       0.000 ltr
  245                  JUNCTION      0.00     0.00     0  00:00           0           0       0.000 ltr
  246                  JUNCTION      0.00     4.98     1  00:57           0       0.287       0.020
  247                  JUNCTION      0.00     0.00     0  00:00           0           0       0.000 ltr
  248                  JUNCTION      0.00     0.00     0  00:00           0           0       0.000 ltr
  249                  JUNCTION      0.00     4.98     1  00:58           0       0.287       0.020
  250                  JUNCTION      0.00     0.02     0  12:22           0     0.00254       0.159
  251                  JUNCTION      0.00     0.02     0  12:36           0     0.00254       0.152
  252                  JUNCTION      0.00     4.98     1  00:58           0       0.287       0.028
  253                  JUNCTION      0.00     0.00     0  00:00           0           0       0.000 ltr
  254                  JUNCTION      0.00     0.02     0  12:40           0     0.00253       0.135
  255                  JUNCTION      0.00     0.02     0  12:33           0     0.00254       0.127
  256                  JUNCTION      0.00     0.02     0  12:47           0     0.00253       0.172
  257                  JUNCTION      0.00     0.00     0  00:00           0           0       0.000 ltr
  258                  JUNCTION      0.00     0.00     0  00:00           0           0       0.000 ltr
  259                  JUNCTION      0.00     0.00     0  00:00           0           0       0.000 ltr
  260                  JUNCTION      0.00     4.98     1  00:58           0       0.287       0.035
  261                  JUNCTION      0.00     0.00     0  00:00           0           0       0.000 ltr
  262                  JUNCTION      0.00     0.02     0  12:44           0     0.00253       0.181
  263                  JUNCTION      0.00     4.98     1  00:59           0       0.287       0.014
  264                  JUNCTION      0.11     5.13     1  00:59      0.0184       0.316       0.033
  265                  JUNCTION      0.08     0.11     0  12:54     0.00875      0.0113       0.109
  266                  JUNCTION      0.00     5.13     1  00:59           0       0.316       0.033
  267                  JUNCTION      0.00     5.13     1  01:00           0       0.316       0.043
  268                  JUNCTION     12.88    16.13     1  00:30       0.191       0.507       0.016
  269                  JUNCTION      0.00    16.00     1  00:30           0       0.507       0.021
  270                  JUNCTION      0.00     0.00     0  00:00           0           0       0.000 ltr
  271                  JUNCTION      0.00    15.94     1  00:30           0       0.507       0.020
  272                  JUNCTION      0.00     0.00     0  00:00           0           0       0.000 ltr
  273                  JUNCTION      0.00     0.00     0  00:00           0           0       0.000 ltr
  274                  JUNCTION      0.00     0.00     0  00:00           0           0       0.000 ltr
  275                  JUNCTION      0.00    15.90     1  00:30           0       0.507       0.013
  276                  JUNCTION      0.00    15.88     1  00:31           0       0.507       0.017
  277                  JUNCTION      0.00     0.00     0  00:00           0           0       0.000 ltr
  278                  JUNCTION      0.00     0.00     0  00:00           0           0       0.000 ltr
  279                  JUNCTION      0.31    16.03     1  00:31      0.0323       0.539       0.013
  280                  JUNCTION      0.00     0.00     0  00:00           0           0       0.000 ltr
  281                  JUNCTION      0.00    16.03     1  00:31           0       0.539       0.010
  282                  JUNCTION      0.03     0.03     0  12:00      0.0033      0.0033       0.058
  283                  JUNCTION      0.00    16.03     1  00:31           0       0.542       0.020
  284                  JUNCTION      0.00     0.00     0  00:00           0           0       0.000 ltr
  285                  JUNCTION      0.00    16.01     1  00:32           0       0.542       0.017
  286                  JUNCTION      0.00     0.00     0  00:00           0           0       0.000 ltr
  287                  JUNCTION      0.00    16.00     1  00:32           0       0.542       0.016
  288                  JUNCTION      0.00     0.00     0  00:00           0           0       0.000 ltr
  289                  JUNCTION      0.00     0.00     0  00:00           0           0       0.000 ltr
  290                  JUNCTION      0.00    16.00     1  00:32           0       0.542       0.013
  291                  JUNCTION      0.07     0.07     0  12:00     0.00719     0.00719       0.066
  292                  JUNCTION      0.00     0.07     1  12:04           0     0.00719       0.070
  293                  JUNCTION      0.00    16.02     1  00:32           0       0.549       0.030
  294                  JUNCTION      0.00     0.07     0  12:06           0     0.00718       0.061
  295                  JUNCTION      0.00     0.07     0  12:39    0.000273     0.00744       0.088
  296                  JUNCTION      0.00     0.07     1  12:51           0     0.00717       0.049
  299                  JUNCTION      0.00    15.92     1  00:33           0       0.549       0.034
  300                  JUNCTION      0.00     0.07     0  12:09           0     0.00718       0.120
  301                  JUNCTION      0.11    15.97     1  00:33      0.0184       0.567       0.018
  302                  JUNCTION      0.00     0.00     0  00:00           0           0       0.000 ltr
  303                  JUNCTION      0.00    15.96     1  00:33           0       0.567       0.014
  304                  JUNCTION      0.00     0.00     0  00:00           0           0       0.000 ltr
  305                  JUNCTION      0.00     0.00     0  00:00           0           0       0.000 ltr
  306                  JUNCTION      0.00    15.94     1  00:34           0       0.567       0.017
  307                  JUNCTION      0.00     0.00     0  00:00           0           0       0.000 ltr
  308                  JUNCTION      0.00    15.94     1  00:34           0       0.567       0.015
  309                  JUNCTION      0.00     0.00     0  00:00           0           0       0.000 ltr
  310                  JUNCTION      0.00     0.00     0  00:00           0           0       0.000 ltr
  311                  JUNCTION      0.00    15.92     1  00:34           0       0.567       0.031
  312                  JUNCTION      0.00    15.84     1  00:35           0       0.567       0.040
  313                  JUNCTION      0.00    15.78     1  00:35           0       0.567       0.022
  314                  JUNCTION      0.00    15.77     1  00:36           0       0.567       0.022
  315                  JUNCTION      0.00    15.74     1  00:36           0       0.566       0.033
  316                  JUNCTION      0.00    15.71     1  00:37           0       0.566       0.032
  317                  JUNCTION      0.00    15.68     1  00:37           0       0.566       0.024
  318                  JUNCTION      0.00     0.00     0  00:00           0           0       0.000 ltr
  319                  JUNCTION      0.00     0.00     0  00:00           0           0       0.000 ltr
  320                  JUNCTION      0.00    15.65     1  00:38           0       0.566       0.027
  321                  JUNCTION      0.00    15.63     1  00:38           0       0.566       0.017
  322                  JUNCTION      0.01    15.63     1  00:38     0.00102       0.567       0.027
  323                  JUNCTION      0.00     0.00     0  00:00           0           0       0.000 ltr
  324                  JUNCTION      0.00     0.00     0  00:00           0           0       0.000 ltr
  325                  JUNCTION      0.00     0.00     0  00:00           0           0       0.000 ltr
  326                  JUNCTION      0.00    15.62     1  00:39           0       0.567       0.038
  327                  JUNCTION      0.00    15.57     1  00:40           0       0.566       0.027
  328                  JUNCTION      0.00    15.55     1  00:40           0       0.566       0.023
  329                  JUNCTION      0.00     0.00     0  00:00           0           0       0.000 ltr
  330                  JUNCTION      0.00    15.53     1  00:40           0       0.566       0.019
  331                  JUNCTION      0.00    15.52     1  00:41           0       0.566       0.020
  332                  JUNCTION      0.00     0.00     0  00:00           0           0       0.000 ltr
  333                  JUNCTION      0.00    15.50     1  00:41           0       0.566       0.029
  334                  JUNCTION      0.00    15.45     1  00:41           0       0.566       0.047
  335                  JUNCTION      0.00     0.00     0  00:00           0           0       0.000 ltr
  336                  JUNCTION      0.11    15.51     1  00:42      0.0184       0.584       0.049
  337                  JUNCTION      0.00    15.45     1  00:43           0       0.583       0.035
  338                  JUNCTION      0.00    15.40     1  00:44           0       0.583       0.042
  339                  JUNCTION      0.00    15.37     1  00:44           0       0.583       0.043
  340                  JUNCTION      0.00    15.35     1  00:45           0       0.583       0.041
  341                  JUNCTION      0.00    15.32     1  00:46           0       0.583       0.032
  342                  JUNCTION      0.00    15.31     1  00:46           0       0.582       0.063
  343                  JUNCTION      0.00    15.18     1  00:47           0       0.582       0.080
  Out1                 OUTFALL       0.00    15.08     1  00:49           0       0.582       0.000
  
  
  **********************
  Node Surcharge Summary
  **********************
  
  No nodes were surcharged.
  
  
  *********************
  Node Flooding Summary
  *********************
  
  No nodes were flooded.
  
  
  ***********************
  Outfall Loading Summary
  ***********************
  
  ---------------------------------------------------------------------------------------
                         Flow       Avg       Max       Total         Total         Total
                         Freq      Flow      Flow      Volume           CSB          NH4N
  Outfall Node           Pcnt       LPS       LPS    10^6 ltr            kg            kg
  ---------------------------------------------------------------------------------------
  Out1                  98.79      4.26     15.08       0.582       259.898        21.704
  ---------------------------------------------------------------------------------------
  System                98.79      4.26     15.08       0.582       259.898        21.704
  
  
  ********************
  Link Flow Summary
  ********************
  
  -----------------------------------------------------------------------------
                                 Maximum  Time of Max   Maximum    Max/    Max/
                                  |Flow|   Occurrence   |Veloc|    Full    Full
  Link                 Type          LPS  days hr:min     m/sec    Flow   Depth
  -----------------------------------------------------------------------------
  103                  CONDUIT     15.08     1  00:49      1.00    0.16    0.27
  97B3                 CONDUIT      0.28     1  13:01      0.44    0.01    0.05
  97B2                 CONDUIT      0.28     1  13:01      0.44    0.01    0.05
  97B37                CONDUIT      0.17     0  13:00      0.34    0.00    0.04
  97B102               CONDUIT      0.00     0  00:00      0.00    0.00    0.03
  97B103               CONDUIT      0.00     0  00:00      0.00    0.00    0.00
  97B104               CONDUIT      0.00     0  00:00      0.00    0.00    0.00
  97B105               CONDUIT      0.00     0  00:00      0.00    0.00    0.00
  97B1                 CONDUIT      0.28     1  13:00      0.44    0.01    0.05
  97B38                CONDUIT      0.17     0  13:00      0.34    0.00    0.04
  97B6                 CONDUIT      0.28     1  13:03      0.42    0.00    0.05
  140B63               CONDUIT      0.00     0  00:00      0.00    0.00    0.00
  140B62               CONDUIT      0.00     0  00:00      0.00    0.00    0.00
  140A16               CONDUIT      0.00     0  00:00      0.00    0.00    0.00
  140B42               CONDUIT      0.00     0  00:00      0.00    0.00    0.00
  140A32               CONDUIT      0.03     0  12:19      0.16    0.00    0.36
  140A36               CONDUIT      0.07     0  12:09      0.44    0.00    0.03
  140A39               CONDUIT      0.07     1  12:51      0.44    0.00    0.03
  140A41               CONDUIT      0.07     0  12:40      0.35    0.00    0.04
  140B10               CONDUIT      0.00     0  00:00      0.00    0.00    0.30
  140B9                CONDUIT      0.00     0  00:00      0.00    0.00    0.19
  140B8                CONDUIT      0.00     0  00:00      0.00    0.00    0.00
  140A56               CONDUIT      0.00     0  00:00      0.00    0.00    0.20
  140A55               CONDUIT      0.00     0  00:00      0.00    0.00    0.00
  140A54               CONDUIT      0.00     0  00:00      0.00    0.00    0.00
  140A40               CONDUIT      0.07     0  12:39      0.49    0.00    0.03
  140B24               CONDUIT      0.00     0  00:00      0.00    0.00    0.00
  140B38               CONDUIT      0.00     0  00:00      0.00    0.00    0.20
  140B55               CONDUIT      0.00     0  00:00      0.00    0.00    0.00
  140C10               CONDUIT      0.00     0  00:00      0.00    0.00    0.00
  140C12               CONDUIT      0.00     0  00:00      0.00    0.00    0.29
  140C11               CONDUIT      0.00     0  00:00      0.00    0.00    0.00
  140B49               CONDUIT      0.00     0  00:00      0.00    0.00    0.33
  140B48               CONDUIT      0.00     0  00:00      0.00    0.00    0.00
  140B50               CONDUIT      0.00     0  00:00      0.00    0.00    0.18
  140A112              CONDUIT      0.00     0  00:00      0.00    0.00    0.00
  140A113              CONDUIT      0.00     0  00:00      0.00    0.00    0.00
  140A114              CONDUIT      0.00     0  00:00      0.00    0.00    0.00
  140A116              CONDUIT      0.00     0  00:00      0.00    0.00    0.01
  140A118              CONDUIT      0.02     0  12:33      0.00    0.00    0.02
  140A117              CONDUIT      0.02     0  12:36      0.00    0.00    0.02
  140A115              CONDUIT      0.00     0  00:00      0.00    0.00    0.00
  97E42                CONDUIT      0.00     0  00:00      0.00    0.00    0.01
  97E43                CONDUIT      0.02     0  12:11      0.00    0.00    0.02
  140A138              CONDUIT      0.00     0  00:00      0.00    0.00    0.01
  97E30                CONDUIT      0.00     0  00:00      0.00    0.00    0.00
  140A126              CONDUIT      0.00     0  00:00      0.00    0.00    0.00
  140A125              CONDUIT      0.00     0  00:00      0.00    0.00    0.00
  140A123              CONDUIT      0.02     0  12:22      0.00    0.00    0.02
  97E41                CONDUIT      0.00     0  00:00      0.00    0.00    0.00
  97E4                 CONDUIT      0.00     0  00:00      0.00    0.00    0.00
  97E5                 CONDUIT      0.00     0  00:00      0.00    0.00    0.00
  97E9                 CONDUIT      0.00     0  00:00      0.00    0.00    0.00
  97E14                CONDUIT      0.00     0  00:00      0.00    0.00    0.00
  97E16                CONDUIT      0.00     0  00:00      0.00    0.00    0.00
  97E22                CONDUIT      0.00     0  00:00      0.00    0.00    0.00
  97E25                CONDUIT      0.00     0  00:00      0.00    0.00    0.02
  97E23                CONDUIT      0.00     0  00:00      0.00    0.00    0.00
  140A28               CONDUIT      0.00     0  00:00      0.00    0.00    0.00
  140A27               CONDUIT      0.00     0  00:00      0.00    0.00    0.00
  140A23               CONDUIT      0.00     0  00:00      0.00    0.00    0.13
  140A22               CONDUIT      0.00     0  00:00      0.00    0.00    0.00
  140A21               CONDUIT      0.00     0  00:00      0.00    0.00    0.00
  140A20               CONDUIT      0.00     0  00:00      0.00    0.00    0.00
  140A19               CONDUIT      0.00     0  00:00      0.00    0.00    0.00
  140A18               CONDUIT      0.00     0  00:00      0.00    0.00    0.10
  140A17               CONDUIT      0.00     0  00:00      0.00    0.00    0.00
  140A31               CONDUIT      0.00     0  00:00      0.00    0.00    0.01
  140A30               CONDUIT      0.00     0  00:00      0.00    0.00    0.00
  140A29               CONDUIT      0.00     0  00:00      0.00    0.00    0.00
  97E29                CONDUIT      0.00     0  00:00      0.00    0.00    0.01
  97E24                CONDUIT      0.00     0  00:00      0.00    0.00    0.00
  97E12                CONDUIT      0.00     0  00:00      0.00    0.00    0.00
  97E15                CONDUIT      0.00     0  00:00      0.00    0.00    0.00
  97E13                CONDUIT      0.00     0  00:00      0.00    0.00    0.00
  C2                   CONDUIT      0.00     0  00:00      0.00    0.00    0.00
  C3                   CONDUIT      0.00     0  00:00      0.00    0.00    0.00
  140A89               CONDUIT      0.00     0  00:00      0.00    0.00    0.00
  140A90               CONDUIT      0.00     0  00:00      0.00    0.00    0.00
  140A91               CONDUIT      0.00     0  00:00      0.00    0.00    0.00
  96X20                CONDUIT      0.00     0  00:00      0.00    0.00    0.00
  96W3                 CONDUIT      0.00     0  00:00      0.00    0.00    0.06
  96X21                CONDUIT      0.00     0  00:00      0.00    0.00    0.00
  96W6                 CONDUIT      0.00     0  00:00      0.00    0.00    0.00
  96X48                CONDUIT      0.00     0  00:00      0.00    0.00    0.05
  96X47                CONDUIT      0.00     0  00:00      0.00    0.00    0.00
  96X46                CONDUIT      0.00     0  00:00      0.00    0.00    0.00
  96X44                CONDUIT      0.00     0  00:00      0.00    0.00    0.05
  96X42                CONDUIT      0.00     0  00:00      0.00    0.00    0.00
  96X26                CONDUIT      0.00     0  00:00      0.00    0.00    0.05
  96X25                CONDUIT      0.00     0  00:00      0.00    0.00    0.00
  96X24                CONDUIT      0.00     0  00:00      0.00    0.00    0.00
  96W7                 CONDUIT      0.00     0  00:00      0.00    0.00    0.00
  140A92               CONDUIT      0.00     0  00:00      0.00    0.00    0.00
  140A94               CONDUIT      0.00     0  00:00      0.00    0.00    0.00
  140A95               CONDUIT      0.00     0  00:00      0.00    0.00    0.00
  96X71                CONDUIT      0.00     0  00:00      0.00    0.00    0.00
  96S8                 CONDUIT      0.00     0  00:00      0.00    0.00    0.00
  96S9                 CONDUIT      0.00     0  00:00      0.00    0.00    0.00
  96S10                CONDUIT      0.00     0  00:00      0.00    0.00    0.00
  96X70                CONDUIT      0.00     0  00:00      0.00    0.00    0.07
  140A93               CONDUIT      0.00     0  00:00      0.00    0.00    0.00
  140A96               CONDUIT      0.00     0  00:00      0.00    0.00    0.01
  140A97               CONDUIT      0.07     1  12:04      0.55    0.00    0.03
  97E39                CONDUIT      0.00     0  00:00      0.00    0.00    0.00
[...]
  96Z53                   1.00   0.01  0.00  0.00  0.01  0.98  0.00  0.00  0.02  0.00
  96Z52                   1.00   0.01  0.00  0.00  0.99  0.00  0.00  0.00  0.03  0.00
  97B29                   1.00   1.00  0.00  0.00  0.00  0.00  0.00  0.00  0.00  0.00
  97B11                   1.00   0.01  0.00  0.00  0.99  0.00  0.00  0.00  0.99  0.00
  97B10                   1.00   0.01  0.00  0.00  0.00  0.99  0.00  0.00  0.99  0.00
  97B9                    1.00   0.01  0.00  0.00  0.00  0.99  0.00  0.00  0.00  0.00
  97B8                    1.00   0.00  0.00  0.00  0.00  0.99  0.00  0.00  0.99  0.00
  97B7                    1.00   0.00  0.00  0.00  0.00  1.00  0.00  0.00  0.99  0.00
  97B4                    1.00   0.00  0.00  0.00  0.00  1.00  0.00  0.00  0.99  0.00
  96Z1                    1.00   1.00  0.00  0.00  0.00  0.00  0.00  0.00  0.00  0.00
  96Z2                    1.00   1.00  0.00  0.00  0.00  0.00  0.00  0.00  0.00  0.00
  96U2                    1.00   1.00  0.00  0.00  0.00  0.00  0.00  0.00  0.00  0.00
  97B30                   1.00   1.00  0.00  0.00  0.00  0.00  0.00  0.00  0.00  0.00
  97B31                   1.00   1.00  0.00  0.00  0.00  0.00  0.00  0.00  0.00  0.00
  97B32                   1.00   0.00  1.00  0.00  0.00  0.00  0.00  0.00  0.00  0.00
  97B26                   1.00   0.00  0.00  0.00  0.12  0.88  0.00  0.00  0.99  0.00
  97B27                   1.00   1.00  0.00  0.00  0.00  0.00  0.00  0.00  0.00  0.00
  97B28                   1.00   1.00  0.00  0.00  0.00  0.00  0.00  0.00  0.00  0.00
  96Y13                   1.00   1.00  0.00  0.00  0.00  0.00  0.00  0.00  0.00  0.00
  96Y11                   1.00   1.00  0.00  0.00  0.00  0.00  0.00  0.00  0.00  0.00
  96Y14                   1.00   0.00  1.00  0.00  0.00  0.00  0.00  0.00  0.00  0.00
  96Y10                   1.00   1.00  0.00  0.00  0.00  0.00  0.00  0.00  0.00  0.00
  96Y18                   1.00   0.00  0.00  0.00  0.00  1.00  0.00  0.00  0.00  0.00
  96Y17                   1.00   0.00  0.01  0.00  0.00  0.99  0.00  0.00  0.79  0.00
  96Y15                   1.00   0.00  0.00  0.00  1.00  0.00  0.00  0.00  1.00  0.00
  96Y12                   1.00   1.00  0.00  0.00  0.00  0.00  0.00  0.00  0.00  0.00
  96Y16                   1.00   0.00  0.00  0.00  0.00  1.00  0.00  0.00  1.00  0.00
  96Z8                    1.00   0.00  0.00  0.00  0.00  1.00  0.00  0.00  0.94  0.00
  C1                      1.00   0.00  0.00  0.00  0.00  1.00  0.00  0.00  0.00  0.00
  
  
  *************************
  Conduit Surcharge Summary
  *************************
  
  No conduits were surcharged.
  
  
  ***************************
  Link Pollutant Load Summary
  ***************************
  
  ------------------------------------------------
                                 CSB          NH4N
  Link                            kg            kg
  ------------------------------------------------
  103                        259.898        21.704
  97B3                        30.494         2.854
  97B2                        30.499         2.854
  97B37                       30.537         2.861
  97B102                       0.000         0.000
  97B103                       0.000         0.000
  97B104                       0.000         0.000
  97B105                       0.000         0.000
  97B1                        30.503         2.855
  97B38                       30.512         2.857
  97B6                        30.480         2.852
  140B63                       0.000         0.000
  140B62                       0.000         0.000
  140A16                       0.000         0.000
  140B42                       0.000         0.000
  140A32                       5.670         0.533
  140A36                      12.223         1.151
  140A39                      12.125         1.143
  140A41                      11.705         1.106
  140B10                       0.000         0.000
  140B9                        0.000         0.000
  140B8                        0.000         0.000
  140A56                       0.000         0.000
  140A55                       0.000         0.000
  140A54                       0.000         0.000
  140A40                      11.238         1.062
  140B24                       0.000         0.000
  140B38                       0.000         0.000
  140B55                       0.000         0.000
  140C10                       0.000         0.000
  140C12                       0.000         0.000
  140C11                       0.000         0.000
  140B49                       0.000         0.000
  140B48                       0.000         0.000
  140B50                       0.000         0.000
  140A112                      0.000         0.000
  140A113                      0.000         0.000
  140A114                      0.000         0.000
  140A116                      0.000         0.000
  140A118                      4.041         0.382
  140A117                      4.046         0.383
  140A115                      0.000         0.000
  97E42                        0.000         0.000
  97E43                        4.392         0.412
  140A138                      0.000         0.000
  97E30                        0.000         0.000
  140A126                      0.000         0.000
  140A125                      0.000         0.000
  140A123                      4.388         0.411
  97E41                        0.000         0.000
  97E4                         0.000         0.000
  97E5                         0.000         0.000
  97E9                         0.000         0.000
  97E14                        0.000         0.000
  97E16                        0.000         0.000
  97E22                        0.000         0.000
  97E25                        0.000         0.000
  97E23                        0.000         0.000
  140A28                       0.000         0.000
  140A27                       0.000         0.000
  140A23                       0.000         0.000
  140A22                       0.000         0.000
  140A21                       0.000         0.000
  140A20                       0.000         0.000
  140A19                       0.000         0.000
  140A18                       0.000         0.000
  140A17                       0.000         0.000
  140A31                       0.000         0.000
  140A30                       0.000         0.000
  140A29                       0.000         0.000
  97E29                        0.000         0.000
  97E24                        0.000         0.000
  97E12                        0.000         0.000
  97E15                        0.000         0.000
  97E13                        0.000         0.000
  C2                           0.000         0.000
  C3                           0.000         0.000
  140A89                       0.000         0.000
  140A90                       0.000         0.000
  140A91                       0.000         0.000
  96X20                        0.000         0.000
  96W3                         0.000         0.000
  96X21                        0.000         0.000
  96W6                         0.000         0.000
  96X48                        0.000         0.000
  96X47                        0.000         0.000
  96X46                        0.000         0.000
  96X44                        0.000         0.000
  96X42                        0.000         0.000
  96X26                        0.000         0.000
  96X25                        0.000         0.000
  96X24                        0.000         0.000
  96W7                         0.000         0.000
  140A92                       0.000         0.000
  140A94                       0.000         0.000
  140A95                       0.000         0.000
  96X71                        0.000         0.000
  96S8                         0.000         0.000
  96S9                         0.000         0.000
  96S10                        0.000         0.000
  96X70                        0.000         0.000
  140A93                       0.000         0.000
  140A96                       0.000         0.000
  140A97                      12.233         1.152
  97E39                        0.000         0.000
  140A98                      12.227         1.152
  97E40                        0.000         0.000
  140A124                      0.000         0.000
  140B25                       0.000         0.000
  140B26                       0.000         0.000
  140B56                       0.000         0.000
  140B60                       0.000         0.000
  140B58                       0.000         0.000
  140A119                      2.080         0.201
  140A120                      2.081         0.201
  140A122                      2.080         0.201
  140A121                      2.082         0.201
  140A43                      11.689         1.106
  96X13                       30.422         2.844
  96X36                       87.699         8.211
  96X19                       30.375         2.838
  96X15                       30.398         2.840
  96W4                        30.430         2.845
  97E28                        0.000         0.000
  97E6                         0.000         0.000
  140A24                      17.111         1.611
  97E21                        0.000         0.000
  97E20                        0.000         0.000
  97E27                        0.000         0.000
  97E26                        8.873         0.838
  97E19                        0.000         0.000
  97E18                        0.000         0.000
  97E17                        0.000         0.000
  97E7                         0.000         0.000
  96X83                       90.171         8.191
  96X82                       90.183         8.194
  96X81                       90.196         8.194
  96X80                       90.208         8.196
  96X74                        0.000         0.000
  96X75                        0.000         0.000
  96X76                        0.000         0.000
  96X77                        0.000         0.000
  96X50                        0.000         0.000
  96X53                        0.000         0.000
  96X56                        0.000         0.000
  96X58                       12.608         1.182
  96S11                        0.000         0.000
  96X72                        0.000         0.000
  96X63                       11.937         1.130
  96X62                       11.951         1.132
  96X61                       11.954         1.132
  96X59                       12.595         1.181
  96X57                        0.000         0.000
  96X54                        0.000         0.000
  96X51                        0.000         0.000
  96X64                       14.465         1.354
  96S18                       14.468         1.354
  96S17                       14.483         1.356
  96S16                        2.423         0.225
  96S14                        2.426         0.226
  96S13                        2.592         0.245
  96S12                        0.000         0.000
  96X78                        0.000         0.000
  96X79                        0.000         0.000
  96X1                        90.222         8.199
  96X73                        0.000         0.000
  97E8                         9.857         0.925
  96Z14                        0.000         0.000
  96X35                       87.712         8.212
  96X34                       87.723         8.214
  96X33                       87.740         8.216
  96X31                       87.778         8.222
  96X29                       30.356         2.835
  96X2                        90.241         8.201
  96X8                         0.000         0.000
  96X6                         0.000         0.000
  96X4                         0.000         0.000
  96X3                         0.000         0.000
  96X5                         0.000         0.000
  96X7                         0.000         0.000
  96X9                         0.003         0.000
  96X28                       30.363         2.836
  96X30                       87.789         8.222
  96X32                       87.757         8.218
  96W5                        30.436         2.846
  96X14                       30.406         2.841
  96X17                       30.387         2.839
  96X37                       87.682         8.209
  96X38                       90.295         8.208
  96X39                       90.283         8.207
  96X40                       90.274         8.205
  96X41                       90.261         8.204
  96X67                       26.391         2.482
  96X68                       26.386         2.481
  96X69                       26.380         2.481
  96X66                       26.397         2.483
  97E1                       140.811        12.450
  97E32                      150.554        13.364
  140A1                      150.433        13.352
  140A74                     150.456        13.355
  97E34                      150.483        13.358
  97E31                      150.579        13.366
  97E3                       150.613        13.370
  97E2                       150.641        13.372
  140A8                      167.406        14.951
  140A7                      167.432        14.953
  140A6                      150.346        13.345
  140A5                      150.357        13.345
  140A4                      150.383        13.349
  140B22                     259.563        21.684
  140C3                      260.621        21.773
  140C4                      260.551        21.767
  140C5                      260.458        21.757
  140C6                      260.376        21.750
  140B45                     261.071        21.824
  140B44                     261.117        21.828
  140B43                     261.176        21.834
  140B23                     261.289        21.848
  140C2                      260.741        21.787
  140C1                      260.875        21.802
  140B47                     260.993        21.818
  140B46                     261.001        21.815
  140C7                      260.293        21.742
  140C8                      260.207        21.732
  140A26                     248.815        20.671
  140A68                     248.782        20.669
  140A15                     243.247        20.150
  140A67                     243.222        20.148
  140A75                     150.419        13.351
  97E52                      150.504        13.359
  97E33                      150.534        13.363
  140A3                      150.404        13.350
  140A9                      167.394        14.951
  140A10                     187.795        14.948
  140A11                     187.758        14.945
  140A25                     248.849        20.675
  140A12                     187.727        14.942
  140A13                     187.707        14.939
  140A14                     187.687        14.938
  140B21                     259.601        21.688
  140B20                     259.680        21.698
  140B7                      259.726        21.702
  140B6                      259.793        21.709
  140B5                      259.862        21.716
  140B4                      259.899        21.718
  140B3                      259.946        21.723
  140B2                      260.051        21.736
  140B1                      260.128        21.741
  140A35                     260.260        21.754
  140A51                     260.222        21.749
  140A52                     260.200        21.748
  140A53                     260.162        21.744
  140A33                     248.744        20.666
  140A34                     260.343        21.764
  140C9                      260.109        21.732
  96Z51                      138.407        12.472
  96Z20                      138.452        12.478
  96Z12                      136.616        12.303
  96Z4                         0.000         0.000
  96Z9                       136.697        12.313
  96Z10                      136.664        12.309
  96Z11                      136.639        12.307
  96Z23                      136.764        12.320
  96Z16                      136.745        12.318
  97B20                        0.000         0.000
  97B21                        0.000         0.000
  97B23                        0.000         0.000
  97B24                        0.000         0.000
  96Z17                        0.000         0.000
  96Z5                         0.000         0.000
  96Z21                        0.000         0.000
  96Z22                        1.885         0.177
  96Y1                       136.952        12.339
  96Y2                       136.925        12.337
  96Y3                       136.891        12.333
  96Y26                      136.865        12.330
  96Y4                       136.841        12.328
  96Z6                         0.000         0.000
  96Y23                      136.985        12.343
  96Y24                       26.374         2.480
  96Y25                       26.369         2.480
  96Y5                       136.817        12.326
  96U3                         0.000         0.000
  96Z18                        0.000         0.000
  96Z15                        0.000         0.000
  96Z3                         0.000         0.000
  96Z19                      138.482        12.478
  96Z7                         0.000         0.000
  96U1                         0.000         0.000
  96Y6                       136.788        12.323
  96Y22                      108.021         9.866
  96Y19                      108.028         9.866
  96Y8                         0.000         0.000
  96Y9                         0.000         0.000
  96Z13                        0.000         0.000
  97B5                        30.484         2.852
  97B106                       0.000         0.000
  97B19                        0.000         0.000
  96Z58                      140.841        12.453
  96Z57                      140.860        12.454
  96Z56                      140.876        12.456
  96Z55                      140.904        12.460
  96Z54                      140.942        12.463
  96Z53                      140.975        12.466
  96Z52                      138.375        12.469
  97B29                        0.000         0.000
  97B11                       30.449         2.848
  97B10                       30.454         2.848
  97B9                        30.460         2.849
  97B8                        30.469         2.850
  97B7                        30.475         2.851
  97B4                        30.489         2.853
  96Z1                         0.000         0.000
  96Z2                         0.000         0.000
  96U2                         0.000         0.000
  97B30                        0.000         0.000
  97B31                        0.000         0.000
  97B32                        0.000         0.000
  97B26                       30.556         2.863
  97B27                        0.000         0.000
  97B28                        0.000         0.000
  96Y13                        0.000         0.000
  96Y11                        0.000         0.000
  96Y14                        0.000         0.000
  96Y10                        0.000         0.000
  96Y18                      108.044         9.868
  96Y17                       90.161         8.190
  96Y15                       17.916         1.681
  96Y12                        0.000         0.000
  96Y16                      108.061         9.870
  96Z8                       136.721        12.315
  C1                          11.663         1.102
  

  Analysis begun on:  Tue Sep 26 14:27:54 2017
  Analysis ended on:  Tue Sep 26 14:28:07 2017
  Total elapsed time: 00:00:13